192 
 CELL(H):   7.502650 0.000000  0.000000 0.000000  7.502650 0.000000  0.000000 0.000000  10.917196  90.00  90.00  90.00 positions{angstrom} cell{angstrom}
O           0.8056   0.9378   0.5845
H           0.8056   0.0004   1.3100
H           0.8056   1.8751   1.3100
O           0.8056   0.9378   6.0431
H           0.8056   0.0004   6.7686
H           0.8056   1.8751   6.7686
O           0.8056   4.6891   0.5845
H           0.8056   5.6265   1.3100
H           0.8056   3.7518   1.3100
O           0.8056   4.6891   6.0431
H           0.8056   5.6265   6.7686
H           0.8056   3.7518   6.7686
O           4.5570   0.9378   0.5845
H           4.5570   0.0004   1.3100
H           4.5570   1.8751   1.3100
O           4.5570   0.9378   6.0431
H           4.5570   0.0004   6.7686
H           4.5570   1.8751   6.7686
O           4.5570   4.6891   0.5845
H           4.5570   5.6265   1.3100
H           4.5570   3.7518   1.3100
O           4.5570   4.6891   6.0431
H           4.5570   5.6265   6.7686
H           4.5570   3.7518   6.7686
O           6.4326   0.9378   10.137
H           5.4953   0.9378   10.862
H           7.3700   0.9378   10.862
O           6.4326   0.9378   4.6785
H           5.4953   0.9378   5.4040
H           7.3700   0.9378   5.4040
O           6.4326   4.6891   10.137
H           5.4953   4.6891   10.862
H           7.3700   4.6891   10.862
O           6.4326   4.6891   4.6785
H           5.4953   4.6891   5.4040
H           7.3700   4.6891   5.4040
O           2.6813   0.9378   10.137
H           3.6187   0.9378   10.862
H           1.7440   0.9378   10.862
O           2.6813   0.9378   4.6785
H           3.6187   0.9378   5.4040
H           1.7440   0.9378   5.4040
O           2.6813   4.6891   10.137
H           3.6187   4.6891   10.862
H           1.7440   4.6891   10.862
O           2.6813   4.6891   4.6785
H           3.6187   4.6891   5.4040
H           1.7440   4.6891   5.4040
O           0.8056   6.5648   1.9492
H           -0.131   6.5648   2.6747
H           1.7430   6.5648   2.6747
O           0.8056   6.5648   7.4078
H           -0.131   6.5648   8.1333
H           1.7430   6.5648   8.1333
O           0.8056   2.8134   1.9492
H           -0.131   2.8134   2.6747
H           1.7430   2.8134   2.6747
O           0.8056   2.8134   7.4078
H           -0.131   2.8134   8.1333
H           1.7430   2.8134   8.1333
O           4.5570   6.5648   1.9492
H           5.4943   6.5648   2.6747
H           3.6196   6.5648   2.6747
O           4.5570   6.5648   7.4078
H           5.4943   6.5648   8.1333
H           3.6196   6.5648   8.1333
O           4.5570   2.8134   1.9492
H           5.4943   2.8134   2.6747
H           3.6196   2.8134   2.6747
O           4.5570   2.8134   7.4078
H           5.4943   2.8134   8.1333
H           3.6196   2.8134   8.1333
O           0.8056   6.5648   10.332
H           0.8056   5.6274   9.6071
H           0.8056   7.5021   9.6071
O           0.8056   6.5648   4.8740
H           0.8056   5.6274   4.1485
H           0.8056   7.5021   4.1485
O           0.8056   2.8134   10.332
H           0.8056   3.7508   9.6071
H           0.8056   1.8761   9.6071
O           0.8056   2.8134   4.8740
H           0.8056   3.7508   4.1485
H           0.8056   1.8761   4.1485
O           4.5570   6.5648   10.332
H           4.5570   5.6274   9.6071
H           4.5570   7.5021   9.6071
O           4.5570   6.5648   4.8740
H           4.5570   5.6274   4.1485
H           4.5570   7.5021   4.1485
O           4.5570   2.8134   10.332
H           4.5570   3.7508   9.6071
H           4.5570   1.8761   9.6071
O           4.5570   2.8134   4.8740
H           4.5570   3.7508   4.1485
H           4.5570   1.8761   4.1485
O           0.8056   0.9378   8.9679
H           -0.131   0.9378   8.2424
H           1.7430   0.9378   8.2424
O           0.8056   0.9378   3.5093
H           -0.131   0.9378   2.7838
H           1.7430   0.9378   2.7838
O           0.8056   4.6891   8.9679
H           -0.131   4.6891   8.2424
H           1.7430   4.6891   8.2424
O           0.8056   4.6891   3.5093
H           -0.131   4.6891   2.7838
H           1.7430   4.6891   2.7838
O           4.5570   0.9378   8.9679
H           5.4943   0.9378   8.2424
H           3.6196   0.9378   8.2424
O           4.5570   0.9378   3.5093
H           5.4943   0.9378   2.7838
H           3.6196   0.9378   2.7838
O           4.5570   4.6891   8.9679
H           5.4943   4.6891   8.2424
H           3.6196   4.6891   8.2424
O           4.5570   4.6891   3.5093
H           5.4943   4.6891   2.7838
H           3.6196   4.6891   2.7838
O           6.4326   6.5648   0.7800
H           5.4953   6.5648   0.0545
H           7.3700   6.5648   0.0545
O           6.4326   6.5648   6.2386
H           5.4953   6.5648   5.5131
H           7.3700   6.5648   5.5131
O           6.4326   2.8134   0.7800
H           5.4953   2.8134   0.0545
H           7.3700   2.8134   0.0545
O           6.4326   2.8134   6.2386
H           5.4953   2.8134   5.5131
H           7.3700   2.8134   5.5131
O           2.6813   6.5648   0.7800
H           3.6187   6.5648   0.0545
H           1.7440   6.5648   0.0545
O           2.6813   6.5648   6.2386
H           3.6187   6.5648   5.5131
H           1.7440   6.5648   5.5131
O           2.6813   2.8134   0.7800
H           3.6187   2.8134   0.0545
H           1.7440   2.8134   0.0545
O           2.6813   2.8134   6.2386
H           3.6187   2.8134   5.5131
H           1.7440   2.8134   5.5131
O           6.4326   6.5648   8.7724
H           6.4326   5.6274   9.4979
H           6.4326   7.5021   9.4979
O           6.4326   6.5648   3.3138
H           6.4326   5.6274   4.0393
H           6.4326   7.5021   4.0393
O           6.4326   2.8134   8.7724
H           6.4326   3.7508   9.4979
H           6.4326   1.8761   9.4979
O           6.4326   2.8134   3.3138
H           6.4326   3.7508   4.0393
H           6.4326   1.8761   4.0393
O           2.6813   6.5648   8.7724
H           2.6813   5.6274   9.4979
H           2.6813   7.5021   9.4979
O           2.6813   6.5648   3.3138
H           2.6813   5.6274   4.0393
H           2.6813   7.5021   4.0393
O           2.6813   2.8134   8.7724
H           2.6813   3.7508   9.4979
H           2.6813   1.8761   9.4979
O           2.6813   2.8134   3.3138
H           2.6813   3.7508   4.0393
H           2.6813   1.8761   4.0393
O           6.4326   0.9378   2.1447
H           6.4326   0.0004   1.4192
H           6.4326   1.8751   1.4192
O           6.4326   0.9378   7.6033
H           6.4326   0.0004   6.8778
H           6.4326   1.8751   6.8778
O           6.4326   4.6891   2.1447
H           6.4326   5.6265   1.4192
H           6.4326   3.7518   1.4192
O           6.4326   4.6891   7.6033
H           6.4326   5.6265   6.8778
H           6.4326   3.7518   6.8778
O           2.6813   0.9378   2.1447
H           2.6813   0.0004   1.4192
H           2.6813   1.8751   1.4192
O           2.6813   0.9378   7.6033
H           2.6813   0.0004   6.8778
H           2.6813   1.8751   6.8778
O           2.6813   4.6891   2.1447
H           2.6813   5.6265   1.4192
H           2.6813   3.7518   1.4192
O           2.6813   4.6891   7.6033
H           2.6813   5.6265   6.8778
H           2.6813   3.7518   6.8778
